/*--------------------------------*- C++ -*----------------------------------*\
| =========                 |                                                 |
| \\      /  F ield         | OpenFOAM: The Open Source CFD Toolbox           |
|  \\    /   O peration     | Version:  dev                                   |
|   \\  /    A nd           | Web:      www.OpenFOAM.org                      |
|    \\/     M anipulation  |                                                 |
\*---------------------------------------------------------------------------*/
FoamFile
{
    version     2.0;
    format      ascii;
    class       dictionary;
    location    "system";
    object      controlDict;
}
// * * * * * * * * * * * * * * * * * * * * * * * * * * * * * * * * * * * * * //
#include "${FOAM_CASE}/constant/parameters"

application     pisoFoam;

startFrom       latestTime;

startTime       0;

stopAt          endTime;

endTime         $simTime;

deltaT          $delt;

writeControl    runTime;

writeInterval   1;

purgeWrite      0;

writeFormat     binary;

writePrecision  8;

writeCompression off;

timeFormat      general;

timePrecision   6;

runTimeModifiable true;

functions
{
    forces
    {
	      type forces;
	      functionObjectLibs ("libforces.so");

	      //-- Patches to sample
	      patches ("cylinder");

	      //-- Name of fields
	      pName p;
	      Uname U;

	      //-- Density
	      rho rhoInf;
	      rhoInf 1.;

	      //-- Centre of rotation
	      CofR (0 0 0);
    }

    forceCoeffs
    {
	      type forceCoeffs;
	      functionObjectLibs ("libforces.so");
	      patches (cylinder);

	      pName p;
	      Uname U;
	      
	      //-- reference density
	      rho rhoInf;
	      rhoInf 1.0;

	      //-- Dump to file
	      log true;
        
        //-- Centre of rotation
	      CofR (0 0 0);
	      //-- Direction of lift coefficient
	      liftDir (0 1 0);
	      // dragDir - Direction of drag coefficient
	      dragDir (1 0 0);
	      //-- Pitching moment axis
	      pitchAxis (0 0 1);
	      // magUinf - free stream velocity magnitude
	      magUInf 1.0;
	      //-- reference length
	      lRef $D;
	      //-- reference area (1 for 2D cases)
	      Aref 1.0;
    }
};

// ************************************************************************* //
